/*--------------------------------*- C++ -*----------------------------------*\
| =========                 |                                                 |
| \\      /  F ield         | OpenFOAM: The Open Source CFD Toolbox           |
|  \\    /   O peration     | Version:  2412                                  |
|   \\  /    A nd           | Website:  www.openfoam.com                      |
|    \\/     M anipulation  |                                                 |
\*---------------------------------------------------------------------------*/
FoamFile
{
    version     2.0;
    format      ascii;
    arch        "LSB;label=32;scalar=64";
    class       featureEdgeMesh;
    location    "constant/triSurface";
    object      human.eMesh;
}
// * * * * * * * * * * * * * * * * * * * * * * * * * * * * * * * * * * * * * //


// points:

4212
(
(0.5124977 0.7503979 0.06458184)
(0.4108977 0.7503979 0.06458184)
(0.5124977 0.7503979 -9.999605e-05)
(0.4108977 0.7503979 -9.999605e-05)
(0.4108977 0.4562944 -9.999605e-05)
(0.5124977 0.4562944 -9.999605e-05)
(0.5124977 0.4562944 0.06458184)
(0.4108977 0.4562944 0.06458184)
(0.1822977 0.7503979 0.06458184)
(0.2838977 0.7503979 0.06458184)
(0.1822977 0.4562944 0.06458184)
(0.1822977 0.4562944 -9.999605e-05)
(0.2838977 0.4562944 0.06458184)
(0.2838977 0.4562944 -9.999605e-05)
(0.2838977 0.7503979 -9.999605e-05)
(0.1822977 0.7503979 -9.999605e-05)
(0.1568977 1.181315 1.125032)
(0.1568977 0.9373116 1.125032)
(0.5378977 0.9373116 1.125032)
(0.5378977 1.181315 1.125032)
(0.1868977 0.9673116 0.4131503)
(0.1868977 1.151315 0.4131503)
(0.5078977 0.9673116 0.4131503)
(0.5078977 1.151315 0.4131503)
(0.5124977 0.603452 0.06458184)
(0.4108977 0.603452 0.06458184)
(0.1822977 0.603452 0.06458184)
(0.2838977 0.603452 0.06458184)
(0.5108695 1.154287 0.4512177)
(0.5192832 1.162701 0.5589943)
(0.1839259 1.154287 0.4512177)
(0.1755122 1.162701 0.5589943)
(0.1861364 0.9665502 0.4229031)
(0.1725483 0.9529622 0.5969608)
(0.5086591 0.9665502 0.4229031)
(0.5222471 0.9529622 0.5969608)
(0.1441977 1.05098 0.7309809)
(0.1441977 1.05098 0.7310097)
(0.1441977 1.05098 0.7310022)
(0.4958321 0.7254987 0.1018402)
(0.4941311 0.7229575 0.1056427)
(0.4991326 0.7304299 0.0944613)
(0.4974989 0.727989 0.09811378)
(0.5038451 0.7374705 0.08392598)
(0.5007343 0.7328228 0.09088056)
(0.5097205 0.7462486 0.07079072)
(0.5068383 0.7419425 0.07723424)
(0.4921284 0.6347307 0.102016)
(0.4941494 0.6316273 0.09830192)
(0.4961337 0.6285802 0.09465513)
(0.4980825 0.6255878 0.09107378)
(0.5018769 0.6197611 0.08410051)
(0.5055398 0.6141364 0.07736885)
(0.509078 0.6087032 0.07086647)
(0.4226612 0.6273021 0.09088056)
(0.4210906 0.6241179 0.08736946)
(0.4258966 0.6338618 0.09811378)
(0.4242629 0.6305495 0.0944613)
(0.4292643 0.6406898 0.1056427)
(0.4275634 0.6372413 0.1018402)
(0.4195504 0.620995 0.08392598)
(0.4180395 0.6179318 0.08054819)
(0.4165572 0.6149263 0.07723424)
(0.4151026 0.6119772 0.07398232)
(0.413675 0.6090828 0.07079072)
(0.4122736 0.6062415 0.06765775)
(0.4292461 0.7302684 0.09830192)
(0.425313 0.7345833 0.09107378)
(0.4333256 0.7257929 0.1057992)
(0.4215186 0.738746 0.08410051)
(0.4178556 0.7427647 0.07736885)
(0.4143174 0.7466463 0.07086647)
(0.4135371 0.7503979 0.06458184)
(0.4956948 0.7503979 0.06458184)
(0.4932944 0.7503979 0.06458184)
(0.4980952 0.7503979 0.06458184)
(0.5004957 0.7503979 0.06458184)
(0.5100973 0.7503979 0.06458184)
(0.5076969 0.7503979 0.06458184)
(0.5052965 0.7503979 0.06458184)
(0.5028961 0.7503979 0.06458184)
(0.4616977 0.7503979 -9.999605e-05)
(0.5124977 0.6033462 -9.999605e-05)
(0.4108977 0.6033462 -9.999605e-05)
(0.4616977 0.4562944 -9.999605e-05)
(0.4616977 0.4562944 0.06458184)
(0.5124977 0.5298732 0.06458184)
(0.4108977 0.5298732 0.06458184)
(0.2006643 0.7229575 0.1056427)
(0.1989634 0.7254987 0.1018402)
(0.1972966 0.727989 0.09811378)
(0.1956628 0.7304299 0.0944613)
(0.1940611 0.7328228 0.09088056)
(0.1909504 0.7374705 0.08392598)
(0.1879571 0.7419425 0.07723424)
(0.1850749 0.7462486 0.07079072)
(0.2006461 0.6316273 0.09830192)
(0.202667 0.6347307 0.102016)
(0.1986617 0.6285802 0.09465513)
(0.1929186 0.6197611 0.08410051)
(0.196713 0.6255878 0.09107378)
(0.1892556 0.6141364 0.07736885)
(0.1857174 0.6087032 0.07086647)
(0.2737048 0.6241179 0.08736946)
(0.2721343 0.6273021 0.09088056)
(0.2705326 0.6305495 0.0944613)
(0.2688988 0.6338618 0.09811378)
(0.267232 0.6372413 0.1018402)
(0.2655312 0.6406898 0.1056427)
(0.2752451 0.620995 0.08392598)
(0.276756 0.6179318 0.08054819)
(0.2782383 0.6149263 0.07723424)
(0.2811205 0.6090828 0.07079072)
(0.2796929 0.6119772 0.07398232)
(0.2825219 0.6062415 0.06765775)
(0.2694824 0.7345833 0.09107378)
(0.2655493 0.7302684 0.09830192)
(0.2614698 0.7257929 0.1057992)
(0.2732769 0.738746 0.08410051)
(0.2769398 0.7427647 0.07736885)
(0.280478 0.7466463 0.07086647)
(0.2812583 0.7503979 0.06458184)
(0.1991006 0.7503979 0.06458184)
(0.1967002 0.7503979 0.06458184)
(0.201501 0.7503979 0.06458184)
(0.1942998 0.7503979 0.06458184)
(0.1870985 0.7503979 0.06458184)
(0.1846981 0.7503979 0.06458184)
(0.1918994 0.7503979 0.06458184)
(0.189499 0.7503979 0.06458184)
(0.2330977 0.4562944 0.06458184)
(0.2330977 0.4562944 -9.999605e-05)
(0.1822977 0.6033462 -9.999605e-05)
(0.2838977 0.6033462 -9.999605e-05)
(0.2330977 0.7503979 -9.999605e-05)
(0.1822977 0.5298732 0.06458184)
(0.2838977 0.5298732 0.06458184)
(0.1568977 1.181315 0.9066371)
(0.1568977 1.181315 0.8520383)
(0.1568977 1.181315 0.9612358)
(0.1568977 1.181315 0.7974396)
(0.1568977 1.181315 1.015834)
(0.1568977 1.181315 1.070433)
(0.1568977 1.140648 1.125032)
(0.1568977 1.059313 1.125032)
(0.1568977 1.099981 1.125032)
(0.1568977 0.9373116 0.8520383)
(0.1568977 0.9373116 0.9066371)
(0.1568977 0.9373116 0.7974396)
(0.1568977 0.9373116 0.9612358)
(0.1568977 0.9373116 1.015834)
(0.1568977 0.9779789 1.125032)
(0.1568977 1.018646 1.125032)
(0.1568977 0.9373116 1.070433)
(0.1949977 0.9373116 1.125032)
(0.2330977 0.9373116 1.125032)
(0.2711977 0.9373116 1.125032)
(0.3092977 0.9373116 1.125032)
(0.5378977 0.9373116 0.9066371)
(0.5378977 0.9373116 0.9612358)
(0.5378977 0.9373116 0.7974396)
(0.5378977 0.9373116 0.8520383)
(0.5378977 0.9373116 1.015834)
(0.4235977 0.9373116 1.125032)
(0.3854977 0.9373116 1.125032)
(0.3473977 0.9373116 1.125032)
(0.4616977 0.9373116 1.125032)
(0.4997977 0.9373116 1.125032)
(0.5378977 0.9373116 1.070433)
(0.5378977 1.181315 0.8520383)
(0.5378977 1.181315 0.7974396)
(0.5378977 1.181315 0.9612358)
(0.5378977 1.181315 0.9066371)
(0.4997977 1.181315 1.125032)
(0.5378977 1.181315 1.070433)
(0.4616977 1.181315 1.125032)
(0.5378977 1.181315 1.015834)
(0.3854977 1.181315 1.125032)
(0.4235977 1.181315 1.125032)
(0.3473977 1.181315 1.125032)
(0.2711977 1.181315 1.125032)
(0.3092977 1.181315 1.125032)
(0.2330977 1.181315 1.125032)
(0.1949977 1.181315 1.125032)
(0.5378977 1.140648 1.125032)
(0.5378977 1.099981 1.125032)
(0.5378977 1.059313 1.125032)
(0.5378977 0.9779789 1.125032)
(0.5378977 1.018646 1.125032)
(0.5505977 1.05098 0.7310097)
(0.5505973 1.05098 0.7310109)
(0.5505959 1.05098 0.7310142)
(0.1854118 1.152801 0.432184)
(0.214873 0.9673116 0.4131503)
(0.4799224 0.9673116 0.4131503)
(0.4276477 0.9673116 0.4131503)
(0.443473 0.9673116 0.4131503)
(0.3875227 0.9673116 0.4131503)
(0.3473977 0.9673116 0.4131503)
(0.2513224 0.9673116 0.4131503)
(0.3072727 0.9673116 0.4131503)
(0.5242035 0.9510058 0.6220207)
(0.5261598 0.9490495 0.6470805)
(0.5281161 0.9470932 0.6721404)
(0.5300724 0.9451368 0.6972002)
(0.5320288 0.9431805 0.7222601)
(0.5339851 0.9412242 0.7473199)
(0.5359414 0.9392679 0.7723798)
(0.170592 0.9510058 0.6220207)
(0.158854 0.9392679 0.7723798)
(0.1666793 0.9470932 0.6721404)
(0.1686357 0.9490495 0.6470805)
(0.164723 0.9451368 0.6972002)
(0.1608104 0.9412242 0.7473199)
(0.1627667 0.9431805 0.7222601)
(0.1731854 1.165028 0.5888)
(0.1685318 1.169681 0.6484113)
(0.1708586 1.167354 0.6186056)
(0.166205 1.172008 0.6782169)
(0.1638782 1.174335 0.7080226)
(0.1615513 1.176662 0.7378283)
(0.1592245 1.178988 0.767634)
(0.2270227 1.151315 0.4131503)
(0.2671477 1.151315 0.4131503)
(0.3072727 1.151315 0.4131503)
(0.3473977 1.151315 0.4131503)
(0.4276477 1.151315 0.4131503)
(0.3875227 1.151315 0.4131503)
(0.4677727 1.151315 0.4131503)
(0.5093836 1.152801 0.432184)
(0.52161 1.165028 0.5888)
(0.5332441 1.176662 0.7378283)
(0.5309173 1.174335 0.7080226)
(0.5355709 1.178988 0.767634)
(0.5239369 1.167354 0.6186056)
(0.5262637 1.169681 0.6484113)
(0.5285905 1.172008 0.6782169)
(0.5256792 0.6347072 0.5245659)
(0.5256744 0.634896 0.5245475)
(0.525693 0.633938 0.5246482)
(0.5256792 0.6346915 0.5243257)
(0.525674 0.6348944 0.5242996)
(0.525693 0.6339341 0.5244163)
(0.169121 0.634896 0.5245475)
(0.1691162 0.6347072 0.5245659)
(0.1691024 0.633938 0.5246482)
(0.1691215 0.6348944 0.5242996)
(0.1691162 0.6346915 0.5243257)
(0.1691024 0.6339341 0.5244163)
(0.4869651 0.7122511 0.1216634)
(0.4877468 0.7115388 0.1216634)
(0.4885089 0.7108047 0.1216634)
(0.4892502 0.7100497 0.1216634)
(0.4899701 0.7092748 0.1216634)
(0.4906678 0.7084806 0.1216634)
(0.4913424 0.7076683 0.1216634)
(0.4919932 0.7068388 0.1216634)
(0.4952385 0.6656622 0.1216634)
(0.4946274 0.6645713 0.1216634)
(0.493978 0.6634964 0.1216634)
(0.4958108 0.6667672 0.1216634)
(0.4925668 0.6614031 0.1216634)
(0.4918066 0.6603884 0.1216634)
(0.4910115 0.6593974 0.1216634)
(0.4932908 0.6624397 0.1216634)
(0.4901824 0.6584321 0.1216634)
(0.4893207 0.6574941 0.1216634)
(0.4884277 0.656585 0.1216634)
(0.487505 0.6557065 0.1216634)
(0.486554 0.6548598 0.1216634)
(0.4855765 0.6540464 0.1216634)
(0.4845743 0.6532674 0.1216634)
(0.4835491 0.6525239 0.1216634)
(0.4825028 0.651817 0.1216634)
(0.4814375 0.6511474 0.1216634)
(0.4802503 0.6504571 0.1216634)
(0.4790452 0.6498134 0.1216634)
(0.4778246 0.6492164 0.1216634)
(0.4765914 0.6486666 0.1216634)
(0.4753481 0.6481642 0.1216634)
(0.4740973 0.6477091 0.1216634)
(0.4728416 0.6473011 0.1216634)
(0.4715834 0.6469398 0.1216634)
(0.4703251 0.6466246 0.1216634)
(0.4690691 0.6463549 0.1216634)
(0.4678176 0.6461297 0.1216634)
(0.4665727 0.6459481 0.1216634)
(0.4653364 0.6458091 0.1216634)
(0.4641107 0.6457115 0.1216634)
(0.4628973 0.6456538 0.1216634)
(0.4616977 0.6456349 0.1216634)
(0.506999 0.603452 0.06458184)
(0.5098583 0.603452 0.06458184)
(0.5042496 0.603452 0.06458184)
(0.5015002 0.603452 0.06458184)
(0.4960015 0.603452 0.06458184)
(0.4988608 0.603452 0.06458184)
(0.4932521 0.603452 0.06458184)
(0.4905027 0.603452 0.06458184)
(0.4822546 0.603452 0.06458184)
(0.4850039 0.603452 0.06458184)
(0.4877534 0.603452 0.06458184)
(0.4795052 0.603452 0.06458184)
(0.4740065 0.603452 0.06458184)
(0.4767558 0.603452 0.06458184)
(0.4712571 0.603452 0.06458184)
(0.4685077 0.603452 0.06458184)
(0.4601239 0.6456674 0.1216634)
(0.4585271 0.6457671 0.1216634)
(0.456911 0.6459368 0.1216634)
(0.4552799 0.6461794 0.1216634)
(0.4519912 0.6468921 0.1216634)
(0.4503435 0.6473661 0.1216634)
(0.4536384 0.6464971 0.1216634)
(0.4487008 0.6479203 0.1216634)
(0.4478831 0.6482277 0.1216634)
(0.4470687 0.6485554 0.1216634)
(0.4462584 0.6489034 0.1216634)
(0.4454529 0.6492717 0.1216634)
(0.4446529 0.6496602 0.1216634)
(0.4438593 0.6500689 0.1216634)
(0.4430727 0.6504977 0.1216634)
(0.4422939 0.6509462 0.1216634)
(0.4415236 0.6514145 0.1216634)
(0.4407625 0.6519021 0.1216634)
(0.4400115 0.652409 0.1216634)
(0.4392711 0.6529347 0.1216634)
(0.4385421 0.6534789 0.1216634)
(0.4378252 0.6540413 0.1216634)
(0.4371211 0.6546214 0.1216634)
(0.4364303 0.6552188 0.1216634)
(0.4613065 0.603452 0.06458184)
(0.4637069 0.603452 0.06458184)
(0.4661073 0.603452 0.06458184)
(0.4541052 0.603452 0.06458184)
(0.4565056 0.603452 0.06458184)
(0.458906 0.603452 0.06458184)
(0.4517048 0.603452 0.06458184)
(0.4469039 0.603452 0.06458184)
(0.4493044 0.603452 0.06458184)
(0.4445035 0.603452 0.06458184)
(0.4421031 0.603452 0.06458184)
(0.4397027 0.603452 0.06458184)
(0.4373023 0.603452 0.06458184)
(0.4349019 0.603452 0.06458184)
(0.4277006 0.603452 0.06458184)
(0.430101 0.603452 0.06458184)
(0.4325015 0.603452 0.06458184)
(0.4253002 0.603452 0.06458184)
(0.4228998 0.603452 0.06458184)
(0.418099 0.603452 0.06458184)
(0.4204994 0.603452 0.06458184)
(0.4132982 0.603452 0.06458184)
(0.4156986 0.603452 0.06458184)
(0.4356486 0.6559311 0.1216634)
(0.4348866 0.6566651 0.1216634)
(0.4341452 0.6574202 0.1216634)
(0.4334253 0.6581951 0.1216634)
(0.4327277 0.6589893 0.1216634)
(0.4320531 0.6598016 0.1216634)
(0.4314022 0.660631 0.1216634)
(0.4307756 0.6614766 0.1216634)
(0.430174 0.6623372 0.1216634)
(0.4295978 0.6632117 0.1216634)
(0.4290474 0.6640991 0.1216634)
(0.4285233 0.6649981 0.1216634)
(0.4280258 0.6659078 0.1216634)
(0.427555 0.6668269 0.1216634)
(0.4271112 0.6677542 0.1216634)
(0.4266946 0.6686887 0.1216634)
(0.4263052 0.669629 0.1216634)
(0.4358905 0.7117634 0.1216634)
(0.4368414 0.7126101 0.1216634)
(0.4378189 0.7134236 0.1216634)
(0.4408926 0.7156529 0.1216634)
(0.441958 0.7163225 0.1216634)
(0.4398463 0.714946 0.1216634)
(0.4388212 0.7142025 0.1216634)
(0.4431451 0.7170127 0.1216634)
(0.4443503 0.7176566 0.1216634)
(0.4455708 0.7182535 0.1216634)
(0.446804 0.7188033 0.1216634)
(0.4480473 0.7193057 0.1216634)
(0.4803227 0.7169723 0.1216634)
(0.4811015 0.7165236 0.1216634)
(0.4818718 0.7160555 0.1216634)
(0.4826329 0.7155678 0.1216634)
(0.483384 0.7150609 0.1216634)
(0.4841243 0.7145352 0.1216634)
(0.4848533 0.713991 0.1216634)
(0.4855702 0.7134286 0.1216634)
(0.4862743 0.7128485 0.1216634)
(0.2070486 0.7115388 0.1216634)
(0.2078303 0.7122511 0.1216634)
(0.2062866 0.7108047 0.1216634)
(0.2048253 0.7092748 0.1216634)
(0.2055452 0.7100497 0.1216634)
(0.2041277 0.7084806 0.1216634)
(0.2034531 0.7076683 0.1216634)
(0.2028022 0.7068388 0.1216634)
(0.1995569 0.6656622 0.1216634)
(0.1989846 0.6667672 0.1216634)
(0.200168 0.6645713 0.1216634)
(0.2015046 0.6624397 0.1216634)
(0.2008175 0.6634964 0.1216634)
(0.2022287 0.6614031 0.1216634)
(0.2029888 0.6603884 0.1216634)
(0.203784 0.6593974 0.1216634)
(0.204613 0.6584321 0.1216634)
(0.2054747 0.6574941 0.1216634)
(0.2072905 0.6557065 0.1216634)
(0.2063677 0.656585 0.1216634)
(0.2112463 0.6525239 0.1216634)
(0.2102211 0.6532674 0.1216634)
(0.2092189 0.6540464 0.1216634)
(0.2082414 0.6548598 0.1216634)
(0.213358 0.6511474 0.1216634)
(0.2122926 0.651817 0.1216634)
(0.2157503 0.6498134 0.1216634)
(0.2145451 0.6504571 0.1216634)
(0.218204 0.6486666 0.1216634)
(0.2169708 0.6492164 0.1216634)
(0.2206981 0.6477091 0.1216634)
(0.2194473 0.6481642 0.1216634)
(0.2219539 0.6473011 0.1216634)
(0.2257264 0.6463549 0.1216634)
(0.2244703 0.6466246 0.1216634)
(0.2232121 0.6469398 0.1216634)
(0.2282227 0.6459481 0.1216634)
(0.2269778 0.6461297 0.1216634)
(0.2306847 0.6457115 0.1216634)
(0.229459 0.6458091 0.1216634)
(0.2318982 0.6456538 0.1216634)
(0.2330977 0.6456349 0.1216634)
(0.1849371 0.603452 0.06458184)
(0.1877965 0.603452 0.06458184)
(0.1905458 0.603452 0.06458184)
(0.1932952 0.603452 0.06458184)
(0.1959346 0.603452 0.06458184)
(0.198794 0.603452 0.06458184)
(0.2015433 0.603452 0.06458184)
(0.2042927 0.603452 0.06458184)
(0.2070421 0.603452 0.06458184)
(0.2097915 0.603452 0.06458184)
(0.2125409 0.603452 0.06458184)
(0.2152902 0.603452 0.06458184)
(0.2180396 0.603452 0.06458184)
(0.220789 0.603452 0.06458184)
(0.2235384 0.603452 0.06458184)
(0.2262878 0.603452 0.06458184)
(0.2346715 0.6456674 0.1216634)
(0.2362684 0.6457671 0.1216634)
(0.2395155 0.6461794 0.1216634)
(0.2378844 0.6459368 0.1216634)
(0.2444519 0.6473661 0.1216634)
(0.2428042 0.6468921 0.1216634)
(0.241157 0.6464971 0.1216634)
(0.2460946 0.6479203 0.1216634)
(0.2469123 0.6482277 0.1216634)
(0.2477268 0.6485554 0.1216634)
(0.2485371 0.6489034 0.1216634)
(0.2493426 0.6492717 0.1216634)
(0.2501425 0.6496602 0.1216634)
(0.2509362 0.6500689 0.1216634)
(0.2517228 0.6504977 0.1216634)
(0.2525015 0.6509462 0.1216634)
(0.2532718 0.6514145 0.1216634)
(0.2540329 0.6519021 0.1216634)
(0.2555243 0.6529347 0.1216634)
(0.254784 0.652409 0.1216634)
(0.2569702 0.6540413 0.1216634)
(0.2562533 0.6534789 0.1216634)
(0.2583651 0.6552188 0.1216634)
(0.2576744 0.6546214 0.1216634)
(0.2286882 0.603452 0.06458184)
(0.2310886 0.603452 0.06458184)
(0.233489 0.603452 0.06458184)
(0.2358894 0.603452 0.06458184)
(0.2382898 0.603452 0.06458184)
(0.2406902 0.603452 0.06458184)
(0.2430906 0.603452 0.06458184)
(0.2502919 0.603452 0.06458184)
(0.2526923 0.603452 0.06458184)
(0.2454911 0.603452 0.06458184)
(0.2478915 0.603452 0.06458184)
(0.2550927 0.603452 0.06458184)
(0.2574931 0.603452 0.06458184)
(0.2646944 0.603452 0.06458184)
(0.2670948 0.603452 0.06458184)
(0.2598936 0.603452 0.06458184)
(0.262294 0.603452 0.06458184)
(0.2694952 0.603452 0.06458184)
(0.2718956 0.603452 0.06458184)
(0.2766964 0.603452 0.06458184)
(0.2790969 0.603452 0.06458184)
(0.2742961 0.603452 0.06458184)
(0.2814973 0.603452 0.06458184)
(0.2591468 0.6559311 0.1216634)
(0.2599089 0.6566651 0.1216634)
(0.2613701 0.6581951 0.1216634)
(0.2606502 0.6574202 0.1216634)
(0.2620678 0.6589893 0.1216634)
(0.2633933 0.660631 0.1216634)
(0.2627423 0.6598016 0.1216634)
(0.2646214 0.6623372 0.1216634)
(0.2640198 0.6614766 0.1216634)
(0.2651977 0.6632117 0.1216634)
(0.2662721 0.6649981 0.1216634)
(0.265748 0.6640991 0.1216634)
(0.2667697 0.6659078 0.1216634)
(0.2672405 0.6668269 0.1216634)
(0.2681008 0.6686887 0.1216634)
(0.2676842 0.6677542 0.1216634)
(0.2684903 0.669629 0.1216634)
(0.2569765 0.7134236 0.1216634)
(0.257954 0.7126101 0.1216634)
(0.2549491 0.714946 0.1216634)
(0.2559743 0.7142025 0.1216634)
(0.2528375 0.7163225 0.1216634)
(0.2539029 0.7156529 0.1216634)
(0.2504451 0.7176566 0.1216634)
(0.2516503 0.7170127 0.1216634)
(0.2479914 0.7188033 0.1216634)
(0.2492246 0.7182535 0.1216634)
(0.2467481 0.7193057 0.1216634)
(0.2136939 0.7165236 0.1216634)
(0.2144727 0.7169723 0.1216634)
(0.2121625 0.7155678 0.1216634)
(0.2129236 0.7160555 0.1216634)
(0.2114115 0.7150609 0.1216634)
(0.2099421 0.713991 0.1216634)
(0.2106711 0.7145352 0.1216634)
(0.2085211 0.7128485 0.1216634)
(0.2092252 0.7134286 0.1216634)
(0.5108075 1.153538 0.4504224)
(0.5095272 1.154201 0.4501131)
(0.5107461 1.15278 0.4496368)
(0.5106855 1.152011 0.4488609)
(0.5103943 1.148029 0.4451302)
(0.510451 1.148844 0.4458563)
(0.5105084 1.14965 0.4465924)
(0.5105667 1.150446 0.4473387)
(0.5106257 1.151234 0.4480949)
(0.5103384 1.147205 0.4444144)
(0.5102833 1.146372 0.443709)
(0.5100712 1.142953 0.4409918)
(0.510123 1.14382 0.4416552)
(0.5101756 1.14468 0.4423293)
(0.5102291 1.14553 0.4430139)
(0.5099209 1.140299 0.4390666)
(0.5099701 1.141192 0.4396973)
(0.5098726 1.139399 0.4384472)
(0.5100203 1.142076 0.4403391)
(0.5097786 1.137576 0.4372428)
(0.5098251 1.138491 0.4378393)
(0.5096443 1.134787 0.4355232)
(0.5096881 1.135724 0.4360847)
(0.5096014 1.133844 0.4349734)
(0.5097329 1.136653 0.436658)
(0.5095183 1.131936 0.4339093)
(0.5095594 1.132893 0.4344354)
(0.5094389 1.130002 0.432893)
(0.5094782 1.130972 0.4333951)
(0.5094007 1.129025 0.4324029)
(0.5090747 1.119068 0.4282275)
(0.5091028 1.12008 0.428587)
(0.5092916 1.126058 0.4310058)
(0.5093271 1.127053 0.4314592)
(0.5092577 1.125073 0.4305716)
(0.5092248 1.124084 0.4301498)
(0.5091929 1.123089 0.4297404)
(0.5091618 1.122091 0.4293435)
(0.5091318 1.121087 0.428959)
(0.5093634 1.128043 0.431925)
(0.4078447 1.154622 0.4555065)
(0.4069952 1.154689 0.4563661)
(0.4053386 1.154826 0.4581244)
(0.4045317 1.154896 0.4590228)
(0.4061598 1.154757 0.4572388)
(0.4087081 1.154556 0.4546601)
(0.4095853 1.154491 0.4538271)
(0.4104058 1.154432 0.4530715)
(0.4000002 1.155337 0.4646699)
(0.399298 1.155414 0.4656523)
(0.3986112 1.155491 0.466646)
(0.3979401 1.15557 0.4676508)
(0.3972849 1.155649 0.4686666)
(0.4029617 1.15504 0.4608568)
(0.4021988 1.155113 0.4617923)
(0.4037393 1.154967 0.4599336)
(0.4007179 1.155261 0.4636989)
(0.4014508 1.155187 0.4627397)
(0.5081605 1.154117 0.4490398)
(0.5067698 1.154036 0.4479981)
(0.505356 1.153957 0.4469886)
(0.5039194 1.153881 0.4460114)
(0.5024605 1.153807 0.445067)
(0.5009801 1.153736 0.4441559)
(0.4994786 1.153667 0.4432783)
(0.4239169 1.153667 0.4432783)
(0.422951 1.153711 0.4438376)
(0.4219937 1.153756 0.4444107)
(0.4983996 1.15362 0.4426757)
(0.4137933 1.154205 0.4501735)
(0.4129308 1.154261 0.450879)
(0.4146658 1.154151 0.4494807)
(0.4112369 1.154374 0.4523282)
(0.4120786 1.154317 0.4515973)
(0.4191756 1.153896 0.4462118)
(0.4182545 1.153945 0.4468392)
(0.4201059 1.153848 0.4455979)
(0.4210453 1.153801 0.4449975)
(0.4155484 1.154098 0.4488007)
(0.4164408 1.154046 0.4481337)
(0.4173429 1.153995 0.4474798)
(0.3875687 1.157445 0.4916725)
(0.3871462 1.157592 0.493549)
(0.3856903 1.159235 0.5145941)
(0.3857644 1.15931 0.5155537)
(0.3855163 1.158935 0.5107507)
(0.3855789 1.159085 0.5126732)
(0.3858506 1.159384 0.5165125)
(0.3855025 1.158785 0.5088275)
(0.3855377 1.158634 0.5069045)
(0.3856216 1.158484 0.5049828)
(0.3867715 1.157739 0.4954356)
(0.3864447 1.157887 0.4973314)
(0.3861661 1.158036 0.4992354)
(0.385839 1.15826 0.5021045)
(0.3857543 1.158334 0.5030633)
(0.3860449 1.15811 0.5001902)
(0.3859359 1.158185 0.5011467)
(0.3942581 1.156057 0.4738903)
(0.3937036 1.156141 0.474962)
(0.3931664 1.156225 0.4760422)
(0.3926464 1.15631 0.4771307)
(0.3966459 1.155729 0.4696927)
(0.3960236 1.15581 0.4707283)
(0.3948296 1.155974 0.4728273)
(0.3954181 1.155892 0.4717732)
(0.3885564 1.157155 0.4879532)
(0.3880388 1.1573 0.489807)
(0.3888328 1.157083 0.4870312)
(0.3891211 1.157011 0.4861123)
(0.3894992 1.156922 0.4849649)
(0.3916588 1.156482 0.4793316)
(0.3911913 1.156569 0.4804438)
(0.3921438 1.156396 0.4782272)
(0.3907415 1.156656 0.4815634)
(0.3898953 1.156833 0.4838242)
(0.3903095 1.156744 0.4826902)
(0.4973115 1.153574 0.4420909)
(0.4962145 1.15353 0.4415239)
(0.4951087 1.153487 0.440975)
(0.4939945 1.153446 0.4404441)
(0.492872 1.153406 0.4399314)
(0.4917414 1.153367 0.4394369)
(0.4906031 1.15333 0.4389609)
(0.4894571 1.153294 0.4385032)
(0.4883038 1.15326 0.4380641)
(0.4871434 1.153227 0.4376436)
(0.485976 1.153196 0.4372419)
(0.484802 1.153166 0.436859)
(0.4836215 1.153138 0.436495)
(0.4824347 1.153111 0.43615)
(0.481242 1.153085 0.4358241)
(0.4800441 1.153062 0.4355175)
(0.4776357 1.153018 0.434963)
(0.4764257 1.152999 0.4347152)
(0.4788419 1.153039 0.4352304)
(0.5090477 1.118053 0.4278806)
(0.5090216 1.117033 0.4275462)
(0.5089964 1.11601 0.4272245)
(0.5089723 1.114983 0.4269153)
(0.5089492 1.113953 0.4266188)
(0.508927 1.112919 0.426335)
(0.5089058 1.111881 0.426064)
(0.5088857 1.110841 0.4258056)
(0.5088665 1.109798 0.4255601)
(0.5088484 1.108751 0.4253273)
(0.5088311 1.107702 0.4251073)
(0.508815 1.10665 0.4249002)
(0.5087999 1.105596 0.4247059)
(0.5087857 1.104539 0.4245246)
(0.5087725 1.103479 0.4243562)
(0.5087604 1.102418 0.4242007)
(0.5087492 1.101354 0.4240582)
(0.5087392 1.100289 0.4239287)
(0.5087301 1.099221 0.4238123)
(0.508722 1.098152 0.4237089)
(0.508715 1.097081 0.4236186)
(0.5087089 1.096008 0.4235415)
(0.5087158 1.0833 0.4236295)
(0.5087071 1.084875 0.4235182)
(0.5087267 1.081727 0.4237691)
(0.5087007 1.086453 0.4234353)
(0.5087 1.093859 0.4234266)
(0.5087039 1.094934 0.4234774)
(0.5086946 1.091199 0.4233576)
(0.508697 1.092783 0.4233889)
(0.5086964 1.088034 0.4233808)
(0.5086944 1.089615 0.4233549)
(0.5087398 1.080158 0.423937)
(0.4421534 1.153085 0.4358241)
(0.4409654 1.153111 0.4361486)
(0.4397826 1.153138 0.4364924)
(0.437434 1.153196 0.437237)
(0.4362687 1.153227 0.4376377)
(0.4386054 1.153166 0.4368552)
(0.4283007 1.153487 0.4409681)
(0.4271922 1.15353 0.4415182)
(0.4250001 1.15362 0.4426734)
(0.426092 1.153574 0.4420866)
(0.4339572 1.153294 0.4384958)
(0.4328114 1.15333 0.438953)
(0.4351097 1.15326 0.4380574)
(0.4294171 1.153445 0.4404365)
(0.4305412 1.153405 0.4399235)
(0.4316727 1.153367 0.4394289)
(0.4739953 1.152965 0.4342785)
(0.4727754 1.15295 0.4340897)
(0.4715526 1.152937 0.4339207)
(0.4703273 1.152925 0.4337713)
(0.4690996 1.152915 0.4336419)
(0.4678698 1.152906 0.4335322)
(0.4592161 1.15289 0.4333229)
(0.4579779 1.152894 0.4333732)
(0.4666381 1.1529 0.4334424)
(0.4654049 1.152894 0.4333726)
(0.4641702 1.15289 0.4333226)
(0.4629344 1.152888 0.4332926)
(0.4616977 1.152887 0.4332826)
(0.4567418 1.1529 0.4334434)
(0.4604561 1.152888 0.4332927)
(0.4433466 1.153062 0.4355186)
(0.4445447 1.153039 0.4352324)
(0.4457475 1.153018 0.4349656)
(0.453048 1.152925 0.4337736)
(0.4518224 1.152937 0.4339233)
(0.4542766 1.152915 0.4336437)
(0.4506 1.15295 0.4340926)
(0.4469546 1.152999 0.4347181)
(0.4481659 1.152981 0.4344901)
(0.4493811 1.152965 0.4342816)
(0.4555079 1.152907 0.4335336)
(0.4752122 1.152981 0.434487)
(0.5222641 1.083393 0.5971789)
(0.5222566 1.082253 0.5970818)
(0.5222479 1.081114 0.5969698)
(0.5222844 1.088947 0.5974387)
(0.5222828 1.087968 0.5974185)
(0.5222706 1.084534 0.5972612)
(0.5222799 1.086822 0.5973811)
(0.5222759 1.085677 0.5973286)
(0.5222455 1.099679 0.5969405)
(0.5222533 1.098708 0.5970401)
(0.522285 1.090904 0.5974461)
(0.5222851 1.089926 0.5974479)
(0.5222822 1.09286 0.59741)
(0.522284 1.091882 0.5974335)
(0.522276 1.094813 0.59733)
(0.5222795 1.093837 0.5973755)
(0.5222663 1.096763 0.5972068)
(0.5222716 1.095788 0.5972738)
(0.5222602 1.097736 0.5971288)
(0.522238 1.079978 0.596843)
(0.5222369 1.100649 0.5968301)
(0.522206 1.103549 0.5964343)
(0.5222172 1.102584 0.596577)
(0.5222275 1.101617 0.596709)
(0.5222268 1.078844 0.5967014)
(0.5221676 1.106434 0.5959418)
(0.5221812 1.105474 0.5961167)
(0.5221377 1.108348 0.5955599)
(0.5221531 1.107392 0.5957562)
(0.5221046 1.110254 0.5951353)
(0.5221216 1.109302 0.5953529)
(0.5220681 1.112151 0.5946681)
(0.5220867 1.111203 0.594907)
(0.522194 1.104512 0.5962809)
(0.5220072 1.114976 0.5938877)
(0.5220283 1.114037 0.5941585)
(0.5220487 1.113095 0.5944186)
(0.5219625 1.116847 0.5933145)
(0.5219852 1.115913 0.5936064)
(0.5219145 1.118705 0.5926992)
(0.5219389 1.117777 0.5930122)
(0.5218582 1.120721 0.5919792)
(0.5218868 1.119715 0.5923452)
(0.5217983 1.122715 0.591211)
(0.5218287 1.121721 0.5916011)
(0.5217668 1.123705 0.590809)
(0.5217346 1.124689 0.5903952)
(0.5217013 1.125667 0.5899695)
(0.5213194 1.135127 0.5850763)
(0.5213615 1.134209 0.5856167)
(0.5216672 1.12664 0.589532)
(0.5215961 1.128569 0.5886221)
(0.5216321 1.127607 0.5890828)
(0.5215215 1.130474 0.587666)
(0.5215593 1.129524 0.5881498)
(0.5214432 1.132354 0.586664)
(0.5214828 1.131417 0.5871707)
(0.5214028 1.133285 0.586146)
(0.5212763 1.136038 0.5845246)
(0.5211875 1.137839 0.5833881)
(0.5212323 1.136942 0.5839619)
(0.5210954 1.139613 0.5822078)
(0.5211419 1.13873 0.5828034)
(0.5209999 1.141358 0.5809841)
(0.5210481 1.140489 0.5816013)
(0.520901 1.143074 0.5797175)
(0.5209509 1.14222 0.5803561)
(0.5207988 1.144759 0.5784084)
(0.5208503 1.143921 0.5790682)
(0.5206933 1.146414 0.5770574)
(0.5207465 1.145591 0.577738)
(0.5205846 1.148036 0.5756649)
(0.5206394 1.147229 0.5763662)
(0.5204383 1.150098 0.5737911)
(0.5205121 1.149075 0.574736)
(0.5203634 1.151106 0.5728305)
(0.4740144 1.16467 0.584214)
(0.4752296 1.164653 0.5840055)
(0.4727955 1.164684 0.584403)
(0.4764409 1.164636 0.5837775)
(0.4824301 1.164524 0.582347)
(0.4836129 1.164497 0.5820032)
(0.481242 1.164549 0.5826716)
(0.4788507 1.164595 0.5832632)
(0.4800488 1.164573 0.582977)
(0.477648 1.164616 0.58353)
(0.5202872 1.152097 0.5718542)
(0.48479 1.164469 0.5816404)
(0.4715731 1.164698 0.5845724)
(0.5201311 1.154033 0.5698556)
(0.5202097 1.153073 0.5708625)
(0.5200514 1.154976 0.5688337)
(0.4950947 1.164148 0.5775275)
(0.4962032 1.164105 0.5769774)
(0.4973035 1.16406 0.576409)
(0.4939784 1.164189 0.5780591)
(0.4983953 1.164014 0.5758223)
(0.5008706 1.163904 0.5744053)
(0.502244 1.163838 0.5735648)
(0.4994786 1.163967 0.5752172)
(0.5199704 1.155903 0.567797)
(0.4859614 1.164439 0.5812587)
(0.4871267 1.164407 0.5808579)
(0.4882858 1.164375 0.5804383)
(0.4917228 1.164268 0.5790667)
(0.4928543 1.164229 0.5785722)
(0.490584 1.164305 0.5795426)
(0.4894383 1.164341 0.5799998)
(0.4641793 1.164744 0.5851728)
(0.4654175 1.164741 0.5851225)
(0.4666537 1.164735 0.5850522)
(0.4629393 1.164747 0.585203)
(0.4616977 1.164748 0.5852131)
(0.4604561 1.164747 0.585203)
(0.4592161 1.164744 0.5851728)
(0.4678875 1.164728 0.584962)
(0.4691189 1.164719 0.5848519)
(0.4703475 1.164709 0.584722)
(0.4579779 1.164741 0.5851225)
(0.4542766 1.164719 0.5848519)
(0.4555079 1.164728 0.584962)
(0.453048 1.164709 0.584722)
(0.4567418 1.164735 0.5850522)
(0.4506 1.164684 0.584403)
(0.4518224 1.164698 0.5845724)
(0.4493811 1.16467 0.584214)
(0.4457475 1.164616 0.58353)
(0.4469546 1.164636 0.5837775)
(0.4481659 1.164653 0.5840055)
(0.4445447 1.164595 0.5832632)
(0.4421534 1.164549 0.5826716)
(0.4433466 1.164573 0.582977)
(0.4409654 1.164524 0.582347)
(0.4386054 1.164469 0.5816404)
(0.4397826 1.164497 0.5820032)
(0.437434 1.164439 0.5812587)
(0.4362687 1.164407 0.5808579)
(0.4328114 1.164305 0.5795426)
(0.4339572 1.164341 0.5799998)
(0.4316727 1.164268 0.5790667)
(0.4351097 1.164375 0.5804383)
(0.4294171 1.164189 0.5780591)
(0.4305412 1.164229 0.5785722)
(0.4283007 1.164148 0.5775275)
(0.4271922 1.164105 0.5769774)
(0.426092 1.16406 0.576409)
(0.4250001 1.164014 0.5758223)
(0.4227641 1.163915 0.5745476)
(0.4239169 1.163967 0.5752172)
(0.4216238 1.163861 0.5738584)
(0.5198051 1.157706 0.56568)
(0.5198883 1.156813 0.5667457)
(0.5049333 1.1637 0.5717996)
(0.5062483 1.163628 0.5708756)
(0.5035983 1.16377 0.5726961)
(0.51007 1.163399 0.567942)
(0.5113015 1.163319 0.5669114)
(0.5196354 1.159441 0.5635061)
(0.5197209 1.158582 0.5646001)
(0.507543 1.163554 0.5699244)
(0.5088171 1.163478 0.5689464)
(0.4204963 1.163806 0.5731496)
(0.4193819 1.163749 0.5724216)
(0.4182807 1.163691 0.5716745)
(0.417193 1.163631 0.5709085)
(0.4161191 1.16357 0.5701238)
(0.4150591 1.163507 0.5693206)
(0.4140135 1.163443 0.568499)
(0.4119658 1.16331 0.5668015)
(0.4129823 1.163377 0.5676593)
(0.5194614 1.161106 0.561277)
(0.519549 1.160282 0.5623984)
(0.5160033 1.162977 0.5625346)
(0.5171208 1.162887 0.5613784)
(0.5125109 1.163236 0.565855)
(0.513698 1.163152 0.5647732)
(0.5148622 1.163065 0.5636663)
(0.5193728 1.161913 0.5601422)
(0.5182143 1.162795 0.5601982)
(0.409978 1.163172 0.565033)
(0.4109643 1.163242 0.5659261)
(0.4090071 1.163101 0.5641225)
(0.408052 1.163029 0.5631948)